src/test/resources/netPositionsData/20190618_0030_2D2_HR1.uct
##C 2007.05.01

##N
##ZHR
HSLACK11 SLACK        0 2 400.00   10.00   10.00   10.00   10.00   20.00   20.00
HLOAD111 LOAD         1 2 400.00   20.00   20.00  738.59   20.00   20.00   20.00
HER_PE11 SHADOW       1 2 400.00   10.00   10.00   10.00   10.00 -306.20   20.00
HMO_KO11 SHADOW       1 2 400.00   10.00   10.00   10.00   10.00 -432.39   20.00
##ZXX
XER_PE11 CORE         1 0 400.00   10.00   10.00   10.00   10.00   20.00   20.00
XMO_KO11 OUT          1 0 400.00   10.00   10.00   10.00   10.00   20.00   20.00
##L
HER_PE11 XER_PE11 1 0  20.00  20.00   20.00   5000
HMO_KO11 XMO_KO11 1 0  20.00  20.00   20.00   5000
##T
##R
